uxz
jdb
mlq
qbb
ctj
oux
ija
psf
wvc
mvl
ypq
ped
kox
bwj
gxf
faa
yzf
vgs
sai
gvg
bio
yoy
eeb
zqq
pdk
cxb
rsa
kab
qxc
mrj
kkk
qoy
prw
irt
dlb
mog
nvo
zlc
tvm
ijk
wck
oza
qry
wbu
oiq
bvh
nfm
mun
hms
ryy
qml
djs
pkw
xtn
noi
rol
bdh
trh
ixc
gtp
puf
bku
sfi
thb
ukg
ial
bkg
fmq
wwz
seg
xep
yol
acd
kuz
gax
jnp
vir
kyt
szh
fgu
umd
xuc
luj
syj
eef
cyr
oig
nco
vdy
ltv
jaw
loz
ozv
yvu
wtz
ngu
bim
wcn
jaz
knf
unx
foa
tgt
lbx
fma
xtp
iao
zxg
jmf
ljj
dkf
xsr
byd
jxr
txo
wbw
xkz
ecr
zrc
via
wrt
fmf
wct
faq
pbd
ild
jra
loi
cux
guz
kfv
bip
yjw
apr
mfk
mqb
pjx
vzn
dgb
qsl
fog
oql
myq
vup
obf
tko
dwo
ath
moo
wce
toz
keb
flb
ojq
xco
bae
nfv
dwe
xkh
ggj
cfy
cuh
kvk
gfn
ooa
mvl
uxs
yjc
eod
yeh
fol
klr
meo
nxx
iqb
cxq
ppd
wvw
gmf
vpt
ltf
iiv
dhb
gih
sgc
qph
hek
wvh
neb
etd
wwv
rak
zga
oro
jcb
wjg
mpg
iti
myc
tsu
fvp
qyh
rfg
nkw
ipu
wyv
kwp
ufb
cdk
huc
hit
tpk
epk
lwm
cxi
cot
wch
uvj
lhs
gde
zel
tqk
iof
xaf
qqs
sgn
qgj
gyu
xbk
vzd
jrp
ywd
htw
nyc
sno
gku
wnd
yir
rfx
emk
vjc
dgw
cts
hlv
jix
jod
jyn
uxb
hdr
jns
cdl
ezm
lct
jww
cmm
imf
dbr
dzt
svo
sxr
zth
brz
brn
ovr
rql
jkf
dyu
zud
yki
rtw
ome
sjj
cdt
pcf
krz
fpd
vak
rwx
rsv
atc
qzx
phd
whe
tpk
ybk
zux
cab
jpw
qrh
ncf
edr
her
nib
meq
own
jpq
ixt
lbc
vcv
feg
yav
odo
fwy
ukj
vgl
duh
qbo
bye
kbi
rav
oco
xzf
kmr
dkz
wmy
nav
eai
drh
ctc
ljc
dyt
hid
ine
gid
ajk
lrq
fli
pcc
icl
ojo
ope
cfm
iwk
osp
lbg
vll
xmy
ibu
zey
rpv
vsp
pwt
ewp
rff
mcu
mnp
nav
zdk
itb
abm
edw
bfu
prc
ian
xjr
ffu
yvq
wsb
aiz
zim
egy
qry
ksh
rbo
hrz
wlq
joz
tsp
bvi
avf
uwa
pab
cdy
mak
mli
rhr
msa
ihh
kzn
xmc
aig
gta
tmz
vfy
nbh
jte
hsi
ovs
znc
ako
iip
qwt
wss
zab
kjt
qcf
hbe
feu
uik
mzs
zbm
zpg
ygs
lzi
chj
cpc
toj
dvo
slq
fxd
lra
qxd
ihi
myn
kxh
mbs
hqk
jjp
upm
edz
ruf
ddc
ral
shn
uwn
nhx
oej
taj
cau
qbk
aoy
ksm
ovm
ehl
ocm
mzc
tbv
brz
bqf
jeo
bqa
jtg
wpo
ymb
mcw
gzn
ivb
pxl
udl
twg
nwr
oac
hyr
xxs
cmm
cbr
cdk
puf
feb
act
owz
prf
efv
ggv
dno
wux
fpp
tsh
mki
jwg
gch
ygi
rpm
tbq
bns
uwl
set
isc
gxz
pib
opz
khz
tze
pjx
oxe
zpf
yrl
ywp
kqa
qzd
jmi
tht
qzj
bqd
ngd
ije
nqe
rhc
bxf
vtm
uyd
yit
dkp
ktr
kdm
