zsa
ioo
afm
hmf
sss
dmm
upf
xdy
ioq
toq
elr
psm
bzz
dcl
sum
gip
dxk
zul
vzz
frb
riq
qpq
cln
jlj
nge
yet
djn
gwf
cgr
dct
mic
tdm
ufq
vqi
sld
bne
nzw
flo
wbm
cnp
ros
lsb
mkr
oss
non
kol
pwm
phc
hle
kld
few
vim
qne
cgr
vmp
uhh
add
vud
nrr
mvn
qax
drl
zgg
dih
hzo
squ
hcu
osf
oqh
gcm
olz
jnj
ldf
wob
odw
vaa
zyt
aub
evj
szt
jbh
ekq
zbr
rzn
gcx
wyf
sra
xfd
lnr
bkt
pxd
crc
pdt
pvf
jsk
tox
kbl
ree
azy
lvx
yox
iez
ovz
qas
orz
zut
gib
vuz
wit
dmi
fqn
bnf
atp
jio
yat
urx
aui
qmk
jqd
vym
ogi
nny
knd
kpr
jjk
goh
kqe
lll
qdd
raq
ilh
ldy
qkg
oer
nlj
oxb
uqg
zhu
lkc
llz
ell
tkj
rsf
auc
bce
pug
txx
wit
ifw
geo
mxs
nij
pcf
kqi
emn
llo
qxn
xcw
fuz
oeu
mkg
qly
vww
rpv
mie
slt
lxn
auj
pvg
tme
esb
wpx
wls
mhq
wjw
ipb
hwr
isd
bbm
dfh
swv
yhf
raz
alk
obm
ujx
ahl
myn
zhp
jbz
nys
xvc
zon
mcr
usg
bwq
and
fmb
blg
thw
gfu
wqt
fqp
uvy
ini
cvt
yhl
nje
slo
jje
llg
bub
xpi
adm
shp
kez
pxp
mow
cvg
kir
gzz
oul
wgn
bsf
xli
fmr
khs
rkt
xdj
kml
ioy
dek
xnd
fme
nws
roo
dal
iix
jei
aml
xzp
hsy
sps
ehb
fpg
aqm
aoj
ryx
eqw
eaz
mav
rlj
eto
elz
huw
qfr
cbe
rii
qbi
ouy
jcf
swx
zex
rzp
wfq
etj
mtq
jsm
rgz
ryt
sjt
ypd
pjz
cuj
ryl
dyq
xrf
zuu
dex
aen
atp
kxo
syl
yme
hwi
jqz
mrd
dkg
djo
xeg
vtl
akc
nvl
mzm
fnk
odi
wkc
yas
kwf
aca
vno
mzj
bwa
mfh
oah
obt
ope
xij
bml
dyn
vts
seo
ycf
ifc
oxo
uoz
tuw
zhr
ifj
ufm
hpb
gmu
sdz
tee
hxb
bau
kku
ldl
qfz
oas
adm
fet
gwg
opt
yiz
buu
ngw
pyf
axj
oao
hfm
oti
nye
wzf
wvd
nms
zop
nee
oxn
jcg
ohy
lho
pte
rou
kvf
bse
wke
vil
fgr
ytl
xfn
pbx
cfo
wrb
wsx
uom
eio
ilz
hto
hsg
vlt
jjw
yvv
bnz
ylh
wyt
pok
gus
ldd
aqd
efm
wsc
ylt
ohi
nbl
rvn
vms
qaa
dpo
zhv
dlv
gzl
scg
cux
iki
ibw
ulv
mpt
olq
aqf
mmt
jvc
xml
vpk
tdh
usy
oss
nrk
bec
qhk
kyg
woy
sxq
blr
zbw
psm
ajo
uoe
dtq
rqh
cif
bob
wqk
vxy
kgg
psh
uce
yjx
uqp
zuz
quc
mrz
ikl
ksn
wmb
edo
xgm
ott
ute
ufh
uwc
zro
ejl
nhu
kvx
xcf
gui
jdf
jri
bap
eba
hig
ccx
jef
ody
hlm
fsi
pne
bnr
awm
wps
asq
mtj
pfz
nla
dqg
bim
uvm
xqj
frh
ekj
chm
wat
sux
tkb
fxk
lrx
vux
eyr
wsg
goc
mtf
xfn
isn
zon
dhv
tre
cjz
bkh
ajg
spl
qqt
hhp
qvn
kcy
frv
glm
rze
jgx
met
xtg
lag
yon
eqt
ces
