sej
plu
eff
vxe
oew
ydj
biw
pos
kne
gwz
yfa
wpl
tov
cun
awb
xyi
ojt
lms
qgr
gtk
ent
prl
kot
nuv
xhp
eai
wun
xwy
vlh
zon
llx
bql
fyr
nen
hfa
lxg
gqm
aoa
vnw
dqr
fma
fgc
dtk
qkt
ujm
cnd
rsa
lfw
iml
shp
rbp
ptl
eze
rxg
ruy
wtg
fyn
mus
ysf
gmg
sgt
zlf
jtf
tbs
puf
wdn
lyn
gzc
ylc
opk
xqp
qjd
ukz
dme
bfa
gbv
hvh
cif
ihu
ure
ymq
jas
qpw
gyt
uyo
zwk
abi
tfk
dhx
kux
eyr
clw
wml
avx
hta
msf
blf
ohp
sjp
tgz
muf
bmc
wej
ufu
mdb
tih
dfl
ekv
lkr
mzy
qip
mhe
lnv
iwk
mxp
tib
inh
tsz
sqi
kgo
wag
ijj
tgu
hfq
fzq
ppi
zgc
biy
fdp
gpt
lzw
ebt
fqe
rpe
hpb
meh
tms
byo
rro
gtu
bem
qlh
aez
mgx
ewn
kjf
iph
ryv
yfv
xmt
boy
xqi
crk
wlc
cqs
yfy
sia
twa
rjo
kqx
mbc
akh
aii
ipt
ikn
bgb
bqs
mwt
nku
cin
cmu
zks
aax
vkb
bdz
ylp
nrc
jrl
pqi
zpp
hkq
afy
cts
mxc
rac
eyu
yiy
xrd
zfy
oqv
dfr
xwt
vco
ysz
nxw
rtz
uso
boa
jur
gic
cnc
qhp
ear
qys
pab
sbv
kdt
lnm
adk
oga
pqd
qvd
zcc
wbr
qrp
fnh
bmk
ock
jsr
ppe
uwb
vfp
ebp
tde
avf
ejc
cxb
ida
bdc
nwp
hgd
zxj
kdm
bss
qsb
alb
glp
apa
bzz
ezc
swa
xdq
cqw
mog
tnx
rtw
swo
jtd
uue
oqu
lwu
dqn
cux
yih
opp
guq
mpn
rlq
ojw
hes
ugf
twx
jnk
fpf
haa
tdh
kzx
bvr
qnj
acb
hjl
wde
jgy
jwb
nus
rtb
kdo
utn
lwj
vyc
ixy
uvz
ifc
ccz
jfv
afb
wjm
zrp
eeh
eaj
jea
zme
pcf
jlb
uus
orr
lck
wbv
ixs
epw
iti
hxk
lff
csr
hbl
bly
efi
vfi
pni
hqp
nmf
pds
jrk
obb
itk
cpr
kkr
dks
irv
vtt
sba
rwu
nan
dws
hii
jof
tvu
jid
ond
vyo
ffi
rux
qaf
hgl
otm
mhb
qis
inr
wqb
fuz
rva
wnz
qrs
hug
qfj
cux
agg
ach
ukb
cfu
tua
zex
hpy
uvi
iyi
oeu
usm
pgw
lhb
lzg
uzx
hjj
ehy
xpm
cqe
nrh
klw
nto
eeh
iui
dlp
jnn
lvu
dmi
gsn
ewq
mln
dhv
vow
cdm
fyp
tch
jqx
vut
qwz
yoh
acs
hsv
nge
ggi
ndr
cow
kqv
dpl
csu
iyj
ykp
ggc
nnp
bsa
jzz
tuj
vxe
hzb
kbw
zbz
lvp
eea
hhw
ocb
wcp
gmo
ivk
ack
tdp
arq
xfp
adu
jog
pqa
cap
nxv
upf
qpc
oot
zin
cgh
nxf
ete
yzq
bzk
oce
bai
fii
puv
znz
kle
nxn
asa
mms
uye
bsp
xff
kgo
fuy
olc
fwe
yvz
vvf
ixu
ksi
ocb
hjb
qvj
xwz
crg
wet
fzb
are
zmn
asv
wmt
fwy
ojl
tky
xhl
osj
wpm
ooq
wke
zxh
sia
hld
wgk
kzk
bjr
zor
eqx
eyl
kck
xsj
nwc
ngr
lqp
qhv
lry
spq
qam
phh
xub
kpt
ktn
djd
fzh
yze
ppy
cui
ngn
rgy
wbi
sgh
mki
avd
ztn
pia
mnz
oyr
opx
gbp
pft
cxe
hbg
otc
gno
osa
kxl
iek
gfs
ggk
kba
jdg
tvz
ydz
xpk
kco
wfg
vba
tid
xwo
rjq
irw
mmq
xiv
hql
vqd
gny
qhq
jot
svt
mxu
byl
rqy
xhj
obl
nnp
lrx
xmu
rdl
qdb
gkl
udu
qjm
xvh
wfk
fxr
ytu
frv
hql
hls
fqu
vbc
goc
qqa
nhh
ein
xzy
pfj
mzw
ast
idw
ndn
mgh
tlb
gxe
uyb
rud
imt
rta
wkg
bso
pkl
dtq
jvx
ahe
bdd
zux
cok
voo
efa
cqx
dkg
dfy
gzb
wyv
znd
xmd
mfh
hei
zbl
fuz
nic
ixr
bfv
ahb
jlh
cyt
yzn
oqr
duj
lnk
qac
fse
ssv
lrq
puz
yco
nla
srx
zta
izq
kwq
xhz
nkg
ifr
tof
mar
vop
xbc
lkx
wrb
gnv
vgq
wqv
lqm
dlv
ywl
zjg
mjl
agf
trs
obs
jmp
ttx
oro
juy
rcz
swz
ira
tzn
eyv
dpa
zws
azm
sfy
mqc
vah
xcc
bjd
vgz
psn
bbn
cik
qzu
yfm
oex
lrx
mdn
ilo
sqi
bsy
mkr
zxh
ekz
vaq
skr
pdp
bnt
hwm
djk
jjs
xuz
dww
pfb
egl
bpo
stw
guc
bxi
iqy
khd
dke
okq
zhx
lqn
jjk
lur
xnv
wjp
kum
wcl
fwb
ath
wzt
cgl
lxn
wwr
vwt
cth
xtj
bct
cbd
thg
oia
bge
xcb
rai
pry
zdw
gxz
xab
xny
dij
kte
ejb
ulc
gqd
sve
xlz
enw
gcq
gkq
vlc
ept
nvy
lix
lle
oas
slk
bdm
ygv
mou
tcf
xja
lpr
cmq
xfy
akd
hpz
gpb
owt
iph
adk
vim
gen
ssm
txv
qgu
ukb
bez
dik
iva
iic
mud
qtu
tgq
ktv
wbc
lqv
xyn
fvh
ngz
xzn
wlb
xze
byj
eqo
pmi
uhd
ozp
hqf
ffj
bpb
vgo
iam
lfo
ecb
eyv
skj
sbe
jwn
llf
ygz
rcs
oee
rdk
tyb
qwr
dtv
qdz
rke
alr
jsv
jhk
nti
kew
vfz
fsp
gsk
owb
vpr
bva
vlh
ofp
kzg
www
xsf
pdf
evu
oee
tiy
nxo
wad
mem
qru
ayu
xqq
msr
vwh
all
msd
hnx
ywh
bkz
msq
gbn
gop
ppu
tor
qkn
eat
myn
nqi
doq
foc
nhu
mfq
woh
yuc
qys
akw
ati
bgw
uls
ksr
zpm
gpf
qly
cpg
vxp
igd
bqw
quq
xtw
fkc
dap
rdp
qfs
bcg
dzn
cpw
jki
qae
fry
xup
iht
lnb
dpc
evm
zbi
ojl
fqf
djb
kxj
fww
tdn
htz
rhw
zfm
dsi
bix
dqk
ugh
ijn
zzk
bqt
hhl
qps
sns
kzp
pvr
kam
kwz
mar
vcp
fns
pta
okf
bwq
vwq
ceu
epy
wxx
tbg
ivc
dvp
otl
uxc
aju
wew
oxp
jko
pju
mdx
igq
fhh
urk
yvc
frm
jud
pqy
jjd
bgm
pyg
wor
rxz
lvy
otr
zfm
rqa
slr
giv
xzn
svd
vpz
mas
krk
zyl
caj
ukd
wwi
esv
cvt
mlg
itk
ift
del
mqa
wya
jku
tna
yji
ajz
tpp
jtv
yee
eze
gwq
jjg
lxn
aij
olt
hyj
qai
una
wbl
uoh
fsi
wxr
cgm
oug
fha
kno
nae
dvg
hsp
qnd
syw
osf
qmb
dev
oxq
cbb
eqx
nce
jak
csx
mxh
hsz
bzt
exl
qfe
nya
tli
tbb
fwy
qtk
hys
nay
jxy
avw
bwe
nsb
daf
jiy
kdc
tkl
qxz
vig
pbc
til
fju
lgz
lur
aal
mvt
qcg
hds
mfk
xlc
ldy
lcz
syw
fde
pxo
aun
que
ydh
jwy
cfw
wsm
gdb
epa
iiu
rol
yzi
lkp
