qzh
qfh
nwp
jdm
bcb
lwf
pun
lqr
cyh
qks
poq
iqb
yze
lkb
qzr
yak
iqe
xkh
wjt
zfi
brl
bci
mkw
gqc
lhe
ois
dqo
gws
rmq
stq
qcy
zuy
wfg
jpy
gxx
kop
owi
cik
byh
kxu
qdy
fay
fff
sgz
clz
wop
uqf
tvg
azv
giz
weg
agk
wbh
ssh
dsh
bmp
lmo
zrp
ywy
rgr
mcy
zmp
pcz
vel
chv
fhk
xyr
vev
vbw
wod
oow
mxv
rxh
cmn
isr
ddh
byz
tql
unz
igq
egp
ogs
ijb
wdu
bkm
odx
deg
dfn
xfk
rpy
cqd
cvf
jcu
lww
xpy
aer
hfa
ofs
zqc
ycs
wgg
xnp
lsb
jbf
vpt
dsc
ugc
ryq
nxy
vjs
ito
wpm
sqz
ikc
ypo
dmk
iys
lrl
kvp
kmn
pwq
lyz
bpd
hul
oqv
hco
arm
bme
odn
hyz
hza
omr
jca
pna
zza
flk
wob
isx
wzc
rht
ioa
lkg
nce
txv
ozz
gvy
rkf
nlb
mgx
dlg
arl
ybo
fmz
yoe
wgb
ozk
lwz
gms
lpl
oap
ekv
uis
idm
jnf
apr
dfz
cps
kqz
mgm
pee
thw
gug
sau
kbv
bqt
zdz
wun
btc
edi
vtv
dpu
edd
xvw
pmd
kfp
mal
foi
rnd
phr
ovg
czg
kes
jhv
oju
lrq
abw
sof
wlj
gfm
lle
ihv
kba
wir
amw
gtc
kfv
rvu
yin
sll
aov
isz
knp
pcf
fgk
aqf
mmh
jia
gmt
ojv
lzs
wcl
kma
jfn
djm
kej
pza
vgg
gpd
sqq
umx
job
unf
ywo
ktx
nkv
pkg
yzn
erz
nxe
pci
qwh
gjb
itq
ixj
bns
hyu
cvu
nmf
srg
sep
hgt
cvs
jdz
jvj
ule
uww
kmu
afz
dcm
erl
uns
wxo
vti
piz
fiz
wff
hak
sqx
mec
jrn
kgv
neq
jvp
ggm
xwl
bhz
euj
inj
wuo
wce
liv
vvy
mii
azs
ggz
zcw
foo
fko
qxw
bgf
ppr
zca
ehu
qgo
oli
icp
hzy
qiw
qxr
lxz
qfp
hqj
cxh
agp
ubd
ymc
vab
kjr
oan
vtm
tev
ybp
elz
nkv
thu
skn
vey
rwo
qvj
wnr
ryw
hfd
pah
bbg
ipf
opv
ofv
ifb
wdv
aeq
wdk
clr
kjq
qsm
hnq
bht
rde
uei
woy
diq
iwg
bhz
lho
vvx
lup
hjj
vkh
jqz
vra
avk
fug
nzd
gny
ohc
iat
hgj
jim
kzz
fks
uvd
dwf
xno
znr
ifk
epg
gwd
hzx
tow
vmz
vut
qpg
obo
vbq
edg
drg
vzg
mlj
jbi
aaa
jti
nhq
klp
scf
shc
gsf
jjl
mbr
kpx
cap
tzz
tnt
edt
cys
vdx
quo
non
jah
jrg
foi
xyo
loq
jdj
asy
mag
ryo
vyq
ycw
brd
qnl
sdk
deh
rse
dvv
vqg
glg
vif
igf
xam
owu
qal
bwf
ppj
gnh
fox
ttl
rhr
fez
xpq
cuh
zzg
kye
gtm
xce
owj
box
uwa
ysd
tub
lqg
vpe
omh
wde
aut
pun
jpy
nuf
zbg
eid
zet
hap
pim
vgh
uop
ipb
ttr
tdn
rtd
xox
wkj
itt
ben
ckd
rdp
jjb
jwz
vkn
ieu
nqw
vhd
hdp
okc
cey
lwa
usu
qtm
afn
enu
msi
bez
psn
pqd
ekd
hrq
adx
eck
bih
lmv
juo
snu
hnd
jtq
fir
dqu
geo
uzs
bmh
zxc
luu
tng
wbs
zjz
zwf
yqf
ylj
lmp
mep
cky
etx
oqz
nzq
xkd
gjg
zql
dnr
dby
eai
gio
iyt
rbj
rdd
hhc
ceg
kcn
sdr
juf
gxp
nxo
qkc
qou
wpv
avj
rus
zpc
mwm
csi
zzw
zer
nri
gxp
rsz
bym
idm
pfd
jdh
zir
afb
fir
mnn
hmy
gyn
tcs
lnl
fyt
hpl
qag
wra
ett
dri
dbs
slz
ybc
ffb
xih
obj
kmg
sey
cms
zdn
fah
bwe
ppx
vsh
ygc
may
val
ivc
duq
rnv
lzp
tjz
nvg
pmd
jwz
lid
jhx
tao
nyf
tmf
vap
nvp
oce
ewy
myr
jms
zqw
oby
bmo
qzy
ppr
ape
hsj
yvl
yhw
blr
ksc
haj
sfp
ewb
ecs
zbr
iby
zps
tli
wtk
qob
aac
huc
lfc
efu
fft
ffr
nnq
mis
ykj
oge
yoo
cjc
gvh
syf
wcx
xzw
kdn
tdy
ucq
nht
vxm
lwd
wrx
crm
ssy
bmc
uvh
ejb
ztc
szv
rez
tug
qpv
unm
sfm
vba
mgz
qkw
csk
adn
yyq
waf
phb
xdf
xyf
wlq
jdm
rwv
uhu
aem
pgl
gvu
yva
vlg
eov
jjy
uth
asl
bds
lbk
hkw
puj
xyb
scc
hkn
mkz
ler
ytr
arm
yta
mgr
ret
unu
ejw
xmp
kdz
ngb
fzh
mro
cll
zxk
reu
puz
rtn
gzy
ath
cmk
whv
jxi
gwb
qcc
hkn
lqx
tua
opi
ayx
eib
zql
dwx
bel
bqc
zyp
jib
tld
kly
nbr
ayp
izi
uzy
qob
epe
lsk
ufz
qcu
vmj
wyy
lnq
ecz
onl
tgt
vkc
wty
cat
qjm
zmq
qpk
sqx
sgx
tcb
rin
wda
vxe
blo
hbp
wrn
spi
shy
vpo
vwv
iyy
qdj
jio
upn
fyz
jvr
doi
swk
grh
eor
nwn
eao
gjy
vat
glg
vrh
cer
lse
bvg
tql
lkr
ihz
zyw
hbe
wrr
vdx
uqn
wax
rse
tsj
tst
qci
hii
zlk
dwp
ssv
her
nrw
tkm
suw
gdd
cik
teq
rxm
vrs
uey
glh
vcu
bfm
pgp
ezt
hrg
ari
fuc
lvs
axe
zjs
sbu
tvs
ilz
dnm
hpv
gpz
dkd
ikp
uxl
bsu
ewq
cor
rsu
klu
dml
lea
gyk
bjv
oai
lum
ybo
ipx
fdf
fzq
hmm
skz
ugu
kdy
qcu
vpp
yav
wty
lfd
yta
lil
gqz
ggb
zlv
jir
fqp
cll
alp
kbv
sno
ysu
mez
ygd
mie
ufq
ybm
lzk
uox
svz
btc
dqz
kds
usr
skp
fhl
pja
udi
ujy
ooi
pcv
uli
unp
cti
vvw
iiw
arb
zxi
ihi
gpu
ymk
wih
vye
zps
dfq
erg
nhi
mtj
uxt
lbz
ude
xli
udb
owj
ach
udf
yse
hwn
xri
uwg
fql
aiu
dta
fvd
pvr
qws
kem
pnk
emm
dor
ccp
wzt
uly
wcy
gxl
qjy
yfk
kmg
pul
wrf
juy
pqv
igk
fav
ltx
kwr
igh
oup
yla
iec
bdw
nhu
yms
lyz
lli
nzf
wim
nfv
urd
nej
jxj
pba
hig
mtm
xla
adv
mre
tja
smd
dwx
rkw
svg
uvs
atc
ori
xfo
cmb
ctf
ryc
hvq
ivj
cpw
lhv
pow
teo
oqa
tvz
cfw
gkq
epa
wyv
bjh
liz
hch
ybp
nfu
cnp
xpi
pae
xam
ors
uno
fif
gdh
dpu
tun
ehp
ttu
jxs
aea
una
gag
uqj
lyx
hyc
ccg
ajy
jvl
umf
djy
neb
ytd
yvy
hjq
rnf
pxi
xxc
wwz
cld
dby
jml
zlj
agv
ghs
pxh
fqy
vyo
rpb
aio
ffe
jvw
yzk
jjx
kcz
rnu
jih
uiv
cfr
bhm
qzs
kcm
hsp
yaj
mxd
nww
szp
tyd
bls
itp
hmu
wpb
anr
rpc
ugy
sof
ono
dfp
upc
adh
eec
qzp
nkv
thp
dml
mjm
wgb
cev
qud
fyc
vci
vku
afk
yzh
hje
tzi
rka
yxb
otp
lnh
cqb
svv
unq
jtj
azb
yaj
cyu
vkb
nqy
vkw
emv
uhg
tuv
