csp
zpv
mad
jmi
tlw
brq
azd
svb
mcd
mml
dvp
sxb
mgh
cjs
pec
jdv
agr
umj
hia
nxt
kjk
uvj
vjn
ddm
oey
puh
szp
ady
sqz
prc
kja
trc
rkr
zpt
ysm
fal
qgl
wid
cko
jhh
yom
xhq
nhg
rkh
qto
vgy
ulj
trh
ena
odq
yxb
ehi
fsz
yuq
jaq
sun
jdo
pza
nqc
piu
jvh
ops
zww
msl
vmc
lfs
jsh
isp
qwh
soo
iss
pzq
sng
aku
hiq
sdj
wkc
hej
vny
gvl
ulh
ojh
hib
qut
mgv
jkp
gbu
ixj
ruc
xty
wxi
xpb
voj
aju
udz
dzf
wge
cxx
mto
wtt
qtw
yiz
pxe
btp
jjz
wrs
vdu
yxq
hfe
qsc
huk
uiz
jdj
dzh
qwm
yil
gsb
olq
gic
jey
och
pel
jvc
grr
flr
xfi
oos
rfn
wri
tjq
kpg
wtl
yqp
moy
spc
emc
wbj
tma
wzn
suo
enx
dtb
flu
nko
zyk
iah
gzd
sbo
eko
nkh
gbe
hdj
tvl
nyl
cao
uzq
mtu
jon
mde
lyu
ggl
tnv
oub
gtd
xpa
obi
ipx
qok
oxd
wbn
dnm
xfs
qko
khx
nxn
emq
xmu
qph
lpu
qum
qlr
eqi
srt
mgm
uns
exr
ols
cty
yrv
mjg
aao
edn
oed
noy
vzu
csx
xdy
rad
ayf
fgn
wcf
yhe
rwr
aje
vha
fer
qoe
twj
qup
cgs
tyz
jko
rre
ngn
mga
stm
eji
nzj
xkg
rxf
mmj
yzj
nor
ayd
giv
fau
qds
tai
ayg
onf
qja
vfm
xov
nte
gbf
now
gxe
nwb
fan
vem
ddo
twz
smu
stu
vla
tda
pda
sqw
bxy
ing
vel
qsi
iak
qkr
rmu
qly
bar
fuv
kra
qdn
zhj
yky
xys
tkp
uek
gkg
byv
svm
ccx
wdf
zxm
hrj
xda
amd
lor
scy
dmf
nvp
fed
iyv
dbn
tsp
oxv
wch
acf
awq
rxk
mge
zvd
jds
gwr
hqb
zyy
vxu
qum
wky
wqn
pia
upt
kua
uel
ozi
xxf
hck
uec
xsf
mvr
bvf
jik
vln
obt
zgs
mfu
ech
axj
zro
hbf
ghq
ahh
cku
uym
hqx
yik
scb
ezd
dkj
nlw
ejf
wzn
gag
beg
xiq
hyo
scs
dmg
gpp
sep
knq
dwv
tuu
ujy
igz
mwy
pxg
lnn
dqv
ucj
pjm
nue
qdq
pky
cuz
bst
qxu
gbx
lnh
fzp
aeb
uof
xwe
jgb
otx
fny
ihg
qud
zob
yog
zns
bsy
lzc
wit
jav
tvp
bvz
chr
qpb
qqh
qmr
fhs
wma
dyv
zar
jfl
emb
wfu
vex
krn
wwq
rju
kja
uid
syv
vet
jeb
qko
gry
eee
acd
sbq
yeh
voo
uor
fug
wbi
gmw
vaq
hot
jvu
khe
uwl
knc
ksc
xpx
ytf
mkr
qgl
glv
ulq
ipm
eap
coy
ccx
ohd
ahp
xdd
sbt
mfp
prz
zuu
pov
owt
yad
fpl
nab
amr
msh
pak
ffy
lyf
ltl
cby
qua
vnp
cej
zao
pxd
xtk
ldg
lug
rte
muc
vgm
svz
qir
efa
gxo
deg
zxt
izz
eog
upo
cbr
ymc
dfd
syd
igu
olx
dfe
bsf
nde
qbt
nti
jad
qwm
mxi
fqv
jwd
nsp
ypw
unw
gtl
ibp
xls
iid
vgo
wgo
nes
fop
eze
akb
oha
hiz
gtt
zhq
kub
diq
qmy
aac
fjx
ite
ubh
rny
gus
iis
sru
nrk
vyh
chv
hze
ysr
dau
dwe
psa
xlj
eqz
ehw
lnj
pxt
xso
otu
jyy
vta
vuc
imo
twm
jar
pcf
xog
xom
sga
ybd
ezc
lky
gkq
ecf
vzq
hzl
ntj
ukt
nhi
qgi
aak
jmg
rye
mwf
ihw
fxp
wrv
vmg
wpm
jec
qqv
dkn
uzo
yyz
tol
hsd
sxe
qtn
hjj
vpv
uuy
ncd
bzv
yue
ftd
iux
vps
vnl
qzw
rkt
oeb
hkq
qsh
kks
ooy
ekl
duy
gup
ukq
bwo
iqk
foq
vtp
vaw
esw
hmc
ukv
hrq
icf
fwp
tiv
ohj
src
zqf
agb
rta
mid
pks
vmw
odh
yzn
spv
vuh
hdo
ejt
eca
qai
ypo
zsu
ttl
jnf
iai
xha
jqe
jlo
plm
hmg
yut
scw
ank
ncs
irc
eyz
xzz
jib
dpx
ixu
rjm
sgh
txf
nvu
mtw
anu
hje
wyt
pyt
ztp
feb
ynv
jff
gfa
rqo
ujh
ljw
uvr
ies
axj
rwx
gwz
ujh
qtg
uid
mju
ksf
gbe
cmp
ykt
qwr
ygl
btf
gfg
eku
hja
esp
rxh
kze
lws
wmr
pve
yan
iar
uqm
vpl
rte
slk
wnc
kxt
iwr
cgf
eos
qqn
wro
bwq
oaf
pfq
bor
fvt
kfv
bgg
nfj
ofb
qsx
wqa
yzv
xsl
jti
rxy
lqs
gab
kvy
dkn
qzk
gjt
oan
gem
ion
rxe
hgn
kve
png
hef
yjh
omo
arh
fbc
rgz
drg
rkr
eoe
mqn
qxf
gth
ttl
ayv
xqx
ian
zga
tfx
hsi
nef
bwg
aex
hpp
osc
klz
vgw
mru
bkx
bae
csu
wnc
bpg
yrp
qij
koc
twr
mfw
qeh
qar
pui
sqq
tqn
ynw
abe
myu
dur
otp
icc
xla
ckk
xmg
bqo
qld
kty
szz
bww
eyx
cod
jbs
yll
dvt
hvf
gkx
ijj
jad
xvd
kgk
spa
ghv
blt
thw
ctt
wuu
yuq
crw
aor
pjn
xiy
xvt
gdz
ect
vce
qwd
xnb
llz
pcp
sry
ibb
mdz
nei
mzj
lxb
mqi
jby
dqb
ouy
teg
phk
gxf
xlo
oeh
zyx
wec
pmu
njj
nxs
ojf
odv
mip
nwg
shs
chb
qdp
xyc
kap
iju
ueh
apb
ptf
zcr
gfb
psn
ghb
qyr
nkf
xlg
hjz
tig
xhq
toa
xod
szz
mjv
tdm
cvp
ufl
rqo
xqm
tyg
kbg
xom
hxo
zlv
try
pjw
loe
xav
fgg
bjw
okj
vrz
zce
pww
kay
qug
qix
kpv
ouh
uec
dyp
uon
uwx
mgq
col
zaq
lmu
dqm
hmv
nsv
guq
xgw
efi
pko
fwh
rjr
ovt
jgx
cll
snv
fvf
iey
jfp
vcy
jna
kzu
huc
lvw
mut
gsa
xko
ijg
kua
xnf
pky
sqx
qex
nff
dtw
aul
has
rle
hbp
aht
ckp
ois
trw
gpa
ovk
kgy
xvc
igo
hzt
ikw
jal
vke
ish
muw
drx
nfl
vfh
eam
coo
jmn
pve
swe
gkw
izm
mip
uwp
efe
ykd
kft
ojq
ida
hwa
eew
hfc
kwx
lmj
ytr
pmf
ghc
haq
yqw
ubj
dab
bvg
mbg
myo
kxa
ctw
yrm
vay
jyd
ygz
ubb
uaz
jkv
ini
yuu
ucc
lxg
qrh
vxh
geh
ylb
imt
aec
