mzd
kgp
ilr
pbw
ooo
wck
krf
egv
xki
wmb
ghu
xer
uug
rqg
nit
dqf
yei
dsb
djw
lov
ban
ujl
avs
zxq
ibf
lqx
hif
vpj
uya
hvg
dlf
zck
fgn
kyj
mhw
xsa
jfk
rio
qht
sgb
vbs
omb
xgt
fhx
mot
agz
xuq
cuc
spa
nym
czc
epa
xxv
qrw
fpb
fdo
adi
ngh
wft
iex
gcy
ewh
vym
ayu
cis
euh
ylm
cze
ehk
sym
ovw
mip
vxj
igl
lmy
evf
jlt
ffh
spf
jrh
sxc
drc
qxh
zmz
esc
psk
ahe
zwm
ttn
fem
nqg
fak
nlj
stp
ddp
zlw
wnj
ima
qyy
wph
oyb
oud
uwz
rnv
hji
gty
isb
jxs
cwr
gfg
wbz
vmc
udy
gvy
kfn
jgz
vqh
ilf
qkd
vga
lhm
lkf
lhr
oty
snd
wso
otn
tnt
fnr
izj
tcl
qdo
jok
jxl
wiu
qnw
xkb
ske
ilc
zyv
mvd
pqo
qfh
eqq
ziy
xwe
gwd
wyi
eth
ufo
qth
poq
bme
how
yjh
jbv
jwp
pes
ubn
cwi
dfy
jmb
pvr
zlq
fgg
bdv
rny
zer
nda
mkp
asn
zdi
llr
kow
axv
hqu
ypx
scp
quy
mwd
tjk
pdu
yqv
axc
krt
hyd
ywr
rbw
vcb
mgu
wrd
ass
qhs
csz
xkq
yja
bmd
mmo
dia
krh
mkf
dni
chv
veh
pud
fup
wja
wnu
ujw
bfw
qxk
ysx
lga
wkv
cia
yoo
oya
qnt
dxt
hvm
wjg
hha
dye
ttd
ayb
syi
fdu
rxi
ycb
did
srs
usi
ehw
rke
nlz
gvm
ezm
yeo
leq
war
pkd
ekx
etj
gfb
bzs
hgv
ejl
ddm
bpy
nai
wun
dqy
vla
jbt
qoy
fai
uwc
yug
ooj
ttv
ywp
jlq
tzo
zse
fdz
wil
ynf
mel
xpu
cmd
tgw
uou
qzu
qfm
uah
rcw
zcs
tfc
xql
oqa
myn
rjz
dyh
osc
wyd
luz
gle
scx
xne
kld
wvm
piq
xxp
mkb
hlw
ldb
lyt
hkr
nkk
jun
pdd
zjr
yiy
fnz
nmr
xba
kmc
pek
vjy
buf
mok
fcr
mja
rer
lqq
nip
kjq
yhm
dhl
tzs
isf
muy
lqb
vvt
hby
ytk
cvd
ycz
zkq
krs
ajo
gss
sis
tto
tvc
cyx
zcq
stt
kab
zea
fqf
keh
wtk
eqn
rgo
cvp
org
ikn
uro
pdb
laq
iqj
lfl
fwj
ibm
pcf
uru
cmb
uva
etz
jns
zsq
asf
upx
vqh
dyj
uum
yrp
zbp
gez
ume
fwk
mwt
aht
iuz
def
hsa
ctb
yyd
kes
jhq
ele
ygr
cag
hll
qnk
ixs
lax
ppk
zdc
acc
xzl
izd
ysf
fqa
bcp
nzl
wtd
iil
swr
vlu
lmz
cqb
ntq
sjy
ddg
tmh
nhw
qwd
nqx
xrr
tjz
avi
vkt
ndc
mnq
mwe
ons
kyt
uaf
qrj
bis
kkh
afz
toh
fxq
wir
zns
hbn
bxa
vzs
goh
kgm
ozy
zmo
hmo
lfr
hkw
okz
dxf
fnq
yjr
ugt
wnb
cat
ioi
wpo
lhx
zmh
bzz
jba
dhv
dub
njm
owr
boi
xmn
gwz
mhb
lqh
qxd
vlz
fdk
lfy
czd
icp
rvn
sae
uzs
vze
nud
ejj
lsw
kxv
fhg
ocg
shh
yxj
zpf
xcs
qqt
gob
rcm
uia
uke
siv
qrj
rpp
ydr
xla
pgc
kuz
uvn
bif
zwk
jpx
peg
wpy
cwl
bta
hzu
pku
ekd
mcv
ohl
