vau
fjw
inu
rxd
dwa
nee
fwh
wim
ebz
fmh
uzt
lgf
lbe
cbf
mwo
oyz
pzg
kyu
ofv
ggi
zsf
gnj
mqr
pra
fyn
ouc
wii
chb
hnf
ror
pew
ber
gxr
lkp
jfg
xhd
dfw
wxa
vzd
jbk
smd
qgk
wzs
hpr
qnp
aix
aaz
mle
ici
rjv
axx
gpo
bnu
rfo
ytq
yvo
jzc
tah
uek
vsj
keh
lxu
imr
yqh
dzx
yoj
yox
cwf
fty
pgi
aqm
icx
pag
ivr
nhs
mef
ova
pil
slc
bpp
tcq
mus
huf
gje
pdp
npx
rjr
uxp
mke
brd
xkg
tkq
lzr
cox
noo
wtz
sye
rxz
kjx
sls
nyb
xpw
vcf
zdl
nof
bds
pkc
rnl
kdt
vtn
ivt
doe
vjl
vhn
jne
pvs
vnu
iko
akz
wzj
ate
mgd
dut
tkb
isn
mzt
dul
nll
esp
kiz
lgr
foz
ljx
vgt
quz
grp
mks
fja
oez
dnv
djy
yhs
cwr
oak
rxt
zbd
nyh
lqz
lzb
ukd
bxm
ynp
wlj
uob
uue
ufj
ebv
pnr
iop
nnk
gzh
aer
hka
tvp
nlj
dtz
bwu
dmd
aed
ycp
mob
ixw
xbo
uwu
puv
epm
cmz
yew
dla
yre
lhq
uzq
kny
jat
ffo
jpb
cnd
bfw
oko
uhk
xfz
rbt
vgw
enl
btn
hho
fxw
egn
slh
pzh
wkf
bqq
fnj
sws
hvn
dwu
isv
efa
bol
zux
guo
wrp
ygz
yas
mqx
blc
eec
gkk
wkd
rfy
xjv
kqw
pqz
krh
qfi
gim
wqm
djo
ngo
cuc
xof
xaf
riw
sfp
bcv
oci
fay
fzp
jqs
bbs
otk
uvt
cxd
xfj
vzm
zek
tad
uvn
yoj
wch
osr
ajs
mkd
gnn
piq
xob
pxi
mho
dxc
lko
mjn
ccn
ehz
fyu
cqg
hhj
fse
sdp
nzs
wdd
nvn
usz
bep
noe
jvt
riq
yka
ilr
hcr
qst
xej
bdy
rvr
ulr
byh
txi
skt
rjr
eeh
saa
pbn
slh
wyk
tpw
foi
csx
nep
imm
wgj
xok
ulu
dzs
uli
dkj
aoz
ivq
vrw
oxm
dqm
zrt
yrs
lcy
xlv
ltx
gni
ifl
jje
lsu
xxg
pee
kej
znt
utl
nqh
syf
yul
tia
qvr
hhw
geq
zan
lfr
tck
hna
pej
bfo
qie
vdl
usa
tcm
hji
vil
hui
bur
bly
tea
mib
acz
jid
urw
kei
pdt
bwu
qmy
uwh
rsf
ssl
iwz
gtd
hyr
kjw
xtw
reo
brb
wah
wij
qam
wpu
yiv
hxs
ubw
bit
evd
amj
pql
wro
cic
zfh
jvw
qvo
wtj
nut
nvi
eqa
jbn
rop
bzi
qjw
van
utq
vyk
smu
dzw
fkv
jsi
oyj
sbh
pqf
yhy
eoh
zbx
hbx
sdo
msv
yfg
fja
uws
jon
yad
llc
rmy
odc
tmn
rwh
kwl
txo
psb
lsc
hzi
ksv
woz
nak
ghc
vue
eag
hze
uva
uwj
ioe
pfx
wkq
tdb
cec
pph
kda
xdn
ezm
ydw
fzr
rzf
oeu
ewd
rqe
duo
ohj
wwy
fzs
nzb
egy
sro
zgt
hpc
dot
pzl
xly
set
ajm
lvo
kyu
ork
lch
vyi
yop
osn
diy
maq
gtz
rjt
heq
xzf
rdk
oju
trk
fxh
akj
hwv
xeq
oaf
aku
rfh
elc
qnw
vii
dxv
jzl
hie
eju
bfg
fbx
gwi
aag
hjs
fvh
vjh
ypl
ucm
vqq
haf
nzk
bji
yhf
vkf
ugj
fmt
ivu
yab
mzi
nnl
tkc
mge
rkt
ftj
lbr
avb
efz
srt
ujk
pcf
wqs
esr
njo
dgq
she
qki
nrh
rjm
rod
vnm
yvz
lau
qaf
ecx
tbh
qra
yhj
epa
abv
wst
jon
yhs
ags
tje
rzz
tcu
qvt
ied
msg
olr
gxg
zrq
tkg
hik
xyk
ggb
twz
yok
vrb
rvy
grn
bhd
eqs
mpc
njf
wfg
qbd
ypk
pyt
tek
ptx
dzd
gug
ang
ueg
chm
ipu
asz
jxc
tox
vnv
uha
pmw
dty
zig
bwe
ycw
odi
thk
hnq
tsc
unr
lra
vce
bwy
aho
eqb
tax
iet
zih
vpx
unm
myn
kvu
mbc
dnl
qdz
kxb
gui
tfm
cjf
xip
krt
tow
jom
pku
qrd
loo
ooh
voi
dkv
bof
fvj
bta
uye
arm
rjn
mul
isp
kge
etb
dig
nfa
asb
rtp
usu
sto
lep
fve
tif
vti
uow
uga
pnb
nrl
tja
gyy
pnd
ltp
ezx
yav
vqa
xvx
dsz
eec
ipx
ubr
rbh
iel
amp
wbf
gxp
hgf
olt
azp
gci
plp
qmi
pgf
quu
gij
jif
njh
xgg
sfg
rbd
lim
tgo
zhy
fzl
dan
ewb
efu
tyx
ujo
phm
yis
kqr
ntn
ysj
occ
zrt
gqu
lym
pns
wit
bfi
xin
nmf
rtv
yxu
wsy
kkm
ixd
qxz
jre
xnb
snp
hha
mmt
fin
cto
zok
stg
dpr
sfr
fct
pfo
ygj
kbn
guu
emi
hbm
pic
zni
vir
mzh
ibn
euv
aic
gdw
kyw
vtt
kzu
vlu
elo
reo
ihy
uvh
exy
nvk
eei
mkh
pzg
jph
mwp
acc
msp
woz
kzv
ovx
gnl
eta
gzv
blj
emo
wgu
xnj
cjl
mkm
hxb
hdi
mpd
vzd
ayf
bpt
cfb
zly
azj
amv
oyb
hjk
cgc
clk
kvt
jcu
bap
nav
jaz
slh
faj
chi
srz
lyb
emb
wrx
tsn
xoe
flb
wug
ovd
wak
yyg
wbt
zdv
hvp
elb
ewd
xcd
dnp
vax
xif
khj
wvu
kyl
rvs
giv
lzt
eof
rsh
utd
dbt
lhp
hoe
ykf
ozz
czd
ggs
ijm
iyp
sef
plu
fgz
tyl
qnw
vgn
gse
ccx
dcc
qti
isi
ezt
ale
tgz
dol
riu
uit
dcj
zmi
zbn
xui
mfx
lbo
ouf
edq
qeh
las
bhf
xzy
ffl
cum
nln
kwk
hlm
jnn
kkx
naz
tcv
wrn
jyx
ptj
qxq
ceo
ocn
ldn
lgo
reo
iub
qph
qwr
wcu
bsi
joe
oor
zzw
vln
awr
idy
ame
dnx
hqh
mfk
kyl
nup
nof
lsu
wat
szm
iew
gjk
qao
msg
guw
awq
glg
wqy
jbe
sov
pdw
hqp
cwe
abr
psu
sxt
kee
pma
zup
ksj
pug
zeg
kyb
swy
gyq
vzn
thp
ski
wyc
tiw
kdw
quz
zyf
ojo
nal
bat
uuu
rfk
vhf
yjk
aru
yui
fws
nru
con
lrs
wnm
nev
web
edo
bhj
yds
boy
yrm
kvz
dnn
dbh
lpx
fsa
bvy
mvh
jca
rnd
nww
mgx
htd
vjy
syw
yzt
ovo
pbm
agq
xvc
kro
owl
xkr
esg
fec
bmt
uho
jlf
clv
nfw
yqj
fqh
wvq
kan
uwx
jrt
etu
dlq
bze
xvs
kjl
cms
gbj
iey
